; Filename: C:\Users\conal\OneDrive - Imperial College London\Imperial\Masters Project\Git_Sync\WDN_Optimisation_Proj\Code\PPO_Optimisation_2\Environment\Modified_initial_networks\6848-68nodes.inp
; WNTR: 1.3.2
; Created: 2025-05-22 20:58:50
[TITLE]

[JUNCTIONS]
;ID                      Elevation       Demand Pattern                 
 2                                  0               2                            ;
 3                                  0               2                            ;
 4                                  0               2                            ;
 5                                  0               2                            ;
 6                                  0               2                            ;
 7                                  0               2                            ;
 8                                  0               2                            ;
 9                                  0               2                            ;
 10                                 0               2                            ;
 11                                 0               2                            ;
 12                                 0               2                            ;
 13                                 0               2                            ;
 14                                 0               2                            ;
 15                                 0               2                            ;
 16                                 0               2                            ;
 17                                 0               2                            ;
 18                                 0               2                            ;
 19                                 0               2                            ;
 20                                 0               2                            ;
 21                                 0               2                            ;
 22                                 0               2                            ;
 23                                 0               2                            ;
 24                                 0               2                            ;
 25                                 0               2                            ;
 26                                 0               2                            ;
 27                                 0               2                            ;
 28                                 0               2                            ;
 29                                 0               2                            ;
 30                                 0               2                            ;
 31                                 0               2                            ;
 32                                 0               2                            ;
 33                                 0               2                            ;
 34                                 0               2                            ;
 36                                 0               2                            ;
 37                                 0               2                            ;
 38                                 0               2                            ;
 39                                 0               2                            ;
 40                                 0               2                            ;
 41                                 0               2                            ;
 42                                 0               2                            ;
 43                                 0               2                            ;
 44                                 0               2                            ;
 45                                 0               2                            ;
 46                                 0               2                            ;
 47                                 0               2                            ;
 48                                 0               2                            ;
 49                                 0               2                            ;
 50                                 0               2                            ;
 51                                 0               2                            ;
 52                                 0               2                            ;
 53                                 0               2                            ;
 54                                 0               2                            ;
 55                                 0               2                            ;
 56                                 0               2                            ;
 57                                 0               2                            ;
 58                                 0               2                            ;
 59                                 0               2                            ;
 60                                 0               2                            ;
 61                                 0               2                            ;
 62                                 0               2                            ;
 63                                 0               2                            ;
 64                                 0               2                            ;
 65                                 0               2                            ;
 66                                 0               2                            ;
 67                                 0               2                            ;
 68                                 0               2                            ;
 69                                 0               2                            ;
 71                                 0               2                            ;
 72                                 0               0                            ;

[RESERVOIRS]
;ID                                   Head                  Pattern
 1                                 10                            ;

[TANKS]
;ID                              Elevation           Init Level            Min Level            Max Level             Diameter           Min Volume Volume Curve         Overflow            

[PIPES]
;ID                   Node1                Node2                              Length             Diameter            Roughness           Minor Loss               Status
 1                    2                    3                                400             200             100               0                 Open   ;
 2                    3                    4                                400             200             100               0                 Open   ;
 3                    4                    5                                400             200             100               0                 Open   ;
 4                    5                    6                                400             200             100               0                 Open   ;
 5                    6                    7                                400             200             100               0                 Open   ;
 6                    7                    8                                400             200             100               0                 Open   ;
 7                    8                    9                                400             200             100               0                 Open   ;
 8                    9                    10                               400             200             100               0                 Open   ;
 9                    10                   11                               400             200             100               0                 Open   ;
 10                   11                   12                               400             200             100               0                 Open   ;
 11                   12                   13                               400             200             100               0                 Open   ;
 12                   13                   14                               400             200             100               0                 Open   ;
 13                   14                   15                               400             200             100               0                 Open   ;
 14                   15                   16                               400             200             100               0                 Open   ;
 15                   16                   17                               400             200             100               0                 Open   ;
 16                   17                   18                               400             200             100               0                 Open   ;
 17                   18                   19                               400             200             100               0                 Open   ;
 18                   19                   20                               400             200             100               0                 Open   ;
 19                   20                   21                               400             200             100               0                 Open   ;
 20                   21                   22                               400             200             100               0                 Open   ;
 21                   22                   23                               400             200             100               0                 Open   ;
 22                   23                   24                               400             200             100               0                 Open   ;
 23                   24                   25                               400             200             100               0                 Open   ;
 24                   25                   26                               400             200             100               0                 Open   ;
 25                   26                   27                               400             200             100               0                 Open   ;
 26                   27                   28                               400             200             100               0                 Open   ;
 27                   28                   29                               400             200             100               0                 Open   ;
 28                   29                   30                               400             200             100               0                 Open   ;
 29                   30                   31                               400             200             100               0                 Open   ;
 30                   31                   32                               400             200             100               0                 Open   ;
 31                   32                   33                               400             200             100               0                 Open   ;
 32                   33                   34                               400             200             100               0                 Open   ;
 35                   37                   38                               400             200             100               0                 Open   ;
 36                   38                   39                               400             200             100               0                 Open   ;
 37                   39                   40                               400             200             100               0                 Open   ;
 38                   40                   41                               400             200             100               0                 Open   ;
 39                   41                   42                               400             200             100               0                 Open   ;
 40                   42                   43                               400             200             100               0                 Open   ;
 41                   43                   44                               400             200             100               0                 Open   ;
 42                   44                   45                               400             200             100               0                 Open   ;
 43                   45                   46                               400             200             100               0                 Open   ;
 44                   46                   47                               400             200             100               0                 Open   ;
 45                   47                   48                               400             200             100               0                 Open   ;
 46                   48                   49                               400             200             100               0                 Open   ;
 47                   49                   50                               400             200             100               0                 Open   ;
 48                   50                   51                               400             200             100               0                 Open   ;
 49                   51                   52                               400             200             100               0                 Open   ;
 50                   52                   53                               400             200             100               0                 Open   ;
 51                   53                   54                               400             200             100               0                 Open   ;
 52                   54                   55                               400             200             100               0                 Open   ;
 53                   55                   56                               400             200             100               0                 Open   ;
 54                   56                   57                               400             200             100               0                 Open   ;
 55                   57                   58                               400             200             100               0                 Open   ;
 56                   58                   59                               400             200             100               0                 Open   ;
 57                   59                   60                               400             200             100               0                 Open   ;
 58                   60                   61                               400             200             100               0                 Open   ;
 59                   61                   62                               400             200             100               0                 Open   ;
 60                   62                   63                               400             200             100               0                 Open   ;
 61                   63                   64                               400             200             100               0                 Open   ;
 62                   64                   65                               400             200             100               0                 Open   ;
 63                   65                   66                               400             200             100               0                 Open   ;
 64                   66                   67                               400             200             100               0                 Open   ;
 65                   67                   68                               400             200             100               0                 Open   ;
 66                   68                   69                               400             200             100               0                 Open   ;
 69                   1                    2                                400             200             100               0                 Open   ;
 70                   1                    37                               400             200             100               0                 Open   ;
 71                   2                    37                               400             200             100               0                 Open   ;
 72                   3                    38                               400             200             100               0                 Open   ;
 73                   4                    39                               400             200             100               0                 Open   ;
 74                   5                    40                               400             200             100               0                 Open   ;
 75                   6                    41                               400             200             100               0                 Open   ;
 76                   7                    42                               400             200             100               0                 Open   ;
 77                   8                    43                               400             200             100               0                 Open   ;
 78                   9                    44                               400             200             100               0                 Open   ;
 79                   10                   45                               400             200             100               0                 Open   ;
 80                   11                   46                               400             200             100               0                 Open   ;
 81                   12                   47                               400             200             100               0                 Open   ;
 82                   13                   48                               400             200             100               0                 Open   ;
 83                   14                   49                               400             200             100               0                 Open   ;
 84                   15                   50                               400             200             100               0                 Open   ;
 85                   16                   51                               400             200             100               0                 Open   ;
 86                   17                   52                               400             200             100               0                 Open   ;
 87                   18                   53                               400             200             100               0                 Open   ;
 88                   19                   54                               400             200             100               0                 Open   ;
 89                   20                   55                               400             200             100               0                 Open   ;
 90                   21                   56                               400             200             100               0                 Open   ;
 91                   22                   57                               400             200             100               0                 Open   ;
 92                   23                   58                               400             200             100               0                 Open   ;
 93                   24                   59                               400             200             100               0                 Open   ;
 94                   25                   60                               400             200             100               0                 Open   ;
 95                   26                   61                               400             200             100               0                 Open   ;
 96                   27                   62                               400             200             100               0                 Open   ;
 97                   28                   63                               400             200             100               0                 Open   ;
 98                   29                   64                               400             200             100               0                 Open   ;
 99                   30                   65                               400             200             100               0                 Open   ;
 100                  31                   66                               400             200             100               0                 Open   ;
 101                  32                   67                               400             200             100               0                 Open   ;
 102                  33                   68                               400             200             100               0                 Open   ;
 103                  34                   69                               400             200             100               0                 Open   ;
 105                  36                   71                               400             200             100               0                 Open   ;
 106                  36                   72                               400             200             100               0                 Open   ;
 107                  71                   72                               400             200             100               0                 Open   ;
 113                  34                   36                               400             200             100               0                 Open   ;
 114                  69                   71                               400             200             100               0                 Open   ;

[PUMPS]
;ID                   Node1                Node2                Properties          
 Pump                 1                    2                    HEAD     PumpCurve              ;

[VALVES]
;ID                   Node1                Node2                            Diameter Type              Setting           Minor Loss

[TAGS]
;type      name       tag       

[DEMANDS]
;ID        Demand     Pattern   

[STATUS]
;ID        Setting   

[PATTERNS]
;ID        Multipliers

[CURVES]
;ID         X-Value      Y-Value     
;PUMP: PumpCurve
 PumpCurve      0.000000   200.000000   ;
 PumpCurve   1000.000000   200.000000   ;


[CONTROLS]

[RULES]

[ENERGY]
GLOBAL EFFICIENCY      75.0000
GLOBAL PRICE           0.0000
DEMAND CHARGE          0.0000

[EMITTERS]
;ID        Flow coefficient

[QUALITY]

[SOURCES]
;Node      Type       Quality    Pattern   

[REACTIONS]
;Type           Pipe/Tank               Coefficient

 ORDER BULK 1
 ORDER TANK 1
 ORDER WALL 1
 GLOBAL BULK 0.0000    
 GLOBAL WALL 0.0000    
 LIMITING POTENTIAL 0.0000    
 ROUGHNESS CORRELATION 0.0000    

[MIXING]
;Tank ID             Model Fraction

[TIMES]
DURATION             00:00:00
HYDRAULIC TIMESTEP   01:00:00
QUALITY TIMESTEP     00:05:00
PATTERN TIMESTEP     01:00:00
PATTERN START        00:00:00
REPORT TIMESTEP      01:00:00
REPORT START         00:00:00
START CLOCKTIME      00:00:00 AM
RULE TIMESTEP        00:06:00
STATISTIC            NONE      

[REPORT]
STATUS     FULL
SUMMARY    NO
PAGE       0

[OPTIONS]
UNITS                LPS                 
HEADLOSS             H-W                 
SPECIFIC GRAVITY     1
VISCOSITY            1
TRIALS               100
ACCURACY             0.0001
CHECKFREQ            2
MAXCHECK             10
UNBALANCED           STOP                
DEMAND MULTIPLIER    1
EMITTER EXPONENT     0.5
QUALITY              NONE                
DIFFUSIVITY          1
TOLERANCE            0.01

[COORDINATES]
;Node      X-Coord    Y-Coord   
2               -1404.760000000       7174.600000000
3               -1071.430000000       7190.480000000
4                -769.840000000       7190.480000000
5                -468.250000000       7190.480000000
6                -150.790000000       7174.600000000
7                 182.540000000       7174.600000000
8                 515.870000000       7174.600000000
9                 849.210000000       7126.980000000
10               1230.160000000       7111.110000000
11               1563.490000000       7111.110000000
12               1912.700000000       7111.110000000
13               2261.900000000       7095.240000000
14               2595.240000000       7095.240000000
15               2880.950000000       7095.240000000
16               3214.290000000       7095.240000000
17               3500.000000000       7095.240000000
18               3817.460000000       7079.370000000
19               4166.670000000       7063.490000000
20               4500.000000000       7063.490000000
21               4865.080000000       7063.490000000
22               5261.900000000       7031.750000000
23               5642.860000000       7015.870000000
24               6055.560000000       7015.870000000
25               6484.130000000       7015.870000000
26               6865.080000000       7015.870000000
27               7261.900000000       7015.870000000
28               7626.980000000       7015.870000000
29               7944.440000000       7015.870000000
30               8373.020000000       7031.750000000
31               8769.840000000       7015.870000000
32               9150.790000000       6984.130000000
33               9515.870000000       7000.000000000
34               9833.330000000       6952.380000000
36              10531.750000000       6936.510000000
37              -1420.630000000       6428.570000000
38              -1039.680000000       6444.440000000
39               -769.840000000       6412.700000000
40               -468.250000000       6460.320000000
41               -182.540000000       6476.190000000
42                166.670000000       6412.700000000
43                500.000000000       6380.950000000
44                801.590000000       6333.330000000
45               1150.790000000       6317.460000000
46               1500.000000000       6301.590000000
47               1833.330000000       6301.590000000
48               2182.540000000       6301.590000000
49               2484.130000000       6317.460000000
50               2801.590000000       6285.710000000
51               3134.920000000       6285.710000000
52               3452.380000000       6285.710000000
53               3833.330000000       6285.710000000
54               4150.790000000       6285.710000000
55               4452.380000000       6285.710000000
56               4801.590000000       6285.710000000
57               5230.160000000       6285.710000000
58               5658.730000000       6269.840000000
59               6039.680000000       6269.840000000
60               6404.760000000       6253.970000000
61               6785.710000000       6253.970000000
62               7166.670000000       6222.220000000
63               7547.620000000       6238.100000000
64               7896.830000000       6222.220000000
65               8293.650000000       6222.220000000
66               8722.220000000       6238.100000000
67               9103.170000000       6269.840000000
68               9436.510000000       6238.100000000
69               9769.840000000       6253.970000000
71              10468.250000000       6238.100000000
72              10880.950000000       6492.060000000
1               -1833.330000000       6857.140000000

[VERTICES]
;Link      X-Coord    Y-Coord   

[LABELS]

[BACKDROP]
DIMENSIONS    -2474.60    3957.14    11633.33    7344.45
UNITS    NONE
OFFSET    0.00    0.00

[END]
