; Filename: c:\Users\conal\OneDrive - Imperial College London\Imperial\Masters Project\Git_Sync\WDN_Optimisation_Proj\Code\PPO_Optimisation_2\PPO_Training\Modified_nets\hanoi-3.inp
; WNTR: 1.3.2
; Created: 2025-06-18 02:48:15
[TITLE]
Hanoi example by Fujiwara and Khang, Water Resources Research, 1990

[JUNCTIONS]
;ID                      Elevation       Demand Pattern                 
 2                                  0    1008.7660458                            ;
 3                                  0    968.76604583                            ;
 4                                  0    248.76604583                            ;
 5                                  0    843.76604583                            ;
 6                                  0    1123.7660458                            ;
 7                                  0    1468.7660458                            ;
 8                                  0    668.76604583                            ;
 9                                  0    643.76604583                            ;
 10                                 0    643.76604583                            ;
 11                                 0    618.76604583                            ;
 12                                 0    678.76604583                            ;
 13                                 0    1058.7660458                            ;
 14                                 0    733.76604583                            ;
 15                                 0    398.76604583                            ;
 16                                 0    428.76604583                            ;
 17                                 0    983.76604583                            ;
 18                                 0    1463.7660458                            ;
 19                                 0    178.76604583                            ;
 20                                 0    1393.7660458                            ;
 21                                 0    1048.7660458                            ;
 22                                 0    603.76604583                            ;
 23                                 0    1163.7660458                            ;
 24                                 0    938.76604583                            ;
 25                                 0    288.76604583                            ;
 26                                 0    1018.7660458                            ;
 27                                 0    488.76604583                            ;
 28                                 0    408.76604583                            ;
 29                                 0    478.76604583                            ;
 30                                 0    478.76604583                            ;
 31                                 0    223.76604583                            ;
 32                                 0    923.76604583                            ;

[RESERVOIRS]
;ID                                   Head                  Pattern
 1                                100                            ;

[TANKS]
;ID                              Elevation           Init Level            Min Level            Max Level             Diameter           Min Volume Volume Curve         Overflow            

[PIPES]
;ID                   Node1                Node2                              Length             Diameter            Roughness           Minor Loss               Status
 1                    1                    2                                100           304.8             130               0                 Open   ;
 2                    2                    3                               1350           304.8             130               0                 Open   ;
 3                    3                    4                                900           304.8             130               0                 Open   ;
 4                    4                    5                               1150           304.8             130               0                 Open   ;
 5                    5                    6                               1450           304.8             130               0                 Open   ;
 6                    6                    7                                450           304.8             130               0                 Open   ;
 7                    7                    8                                850           304.8             130               0                 Open   ;
 8                    8                    9                                850           304.8             130               0                 Open   ;
 9                    9                    10                               800           304.8             130               0                 Open   ;
 10                   10                   11                               950           304.8             130               0                 Open   ;
 11                   11                   12                              1200           304.8             130               0                 Open   ;
 12                   12                   13                              3500           304.8             130               0                 Open   ;
 13                   10                   14                               800           304.8             130               0                 Open   ;
 14                   14                   15                               500           304.8             130               0                 Open   ;
 15                   15                   16                               550           304.8             130               0                 Open   ;
 16                   17                   16                              2730           304.8             130               0                 Open   ;
 17                   18                   17                              1750           304.8             130               0                 Open   ;
 18                   19                   18                               800           304.8             130               0                 Open   ;
 19                   3                    19                               400           304.8             130               0                 Open   ;
 20                   3                    20                              2200           304.8             130               0                 Open   ;
 21                   20                   21                              1500           304.8             130               0                 Open   ;
 22                   21                   22                               500           304.8             130               0                 Open   ;
 23                   20                   23                              2650           304.8             130               0                 Open   ;
 24                   23                   24                              1230           304.8             130               0                 Open   ;
 25                   24                   25                              1300           304.8             130               0                 Open   ;
 26                   26                   25                               850           304.8             130               0                 Open   ;
 27                   27                   26                               300           304.8             130               0                 Open   ;
 28                   16                   27                               750           304.8             130               0                 Open   ;
 29                   23                   28                              1500           304.8             130               0                 Open   ;
 30                   28                   29                              2000           304.8             130               0                 Open   ;
 31                   29                   30                              1600           304.8             130               0                 Open   ;
 32                   30                   31                               150           304.8             130               0                 Open   ;
 33                   32                   31                               860           304.8             130               0                 Open   ;
 34                   25                   32                               950           304.8             130               0                 Open   ;

[PUMPS]
;ID                   Node1                Node2                Properties          
 PUMP_1               2                    3                    POWER    0.05                   ;

[VALVES]
;ID                   Node1                Node2                            Diameter Type              Setting           Minor Loss

[TAGS]
;type      name       tag       

[DEMANDS]
;ID        Demand     Pattern   

[STATUS]
;ID        Setting   

[PATTERNS]
;ID        Multipliers

[CURVES]
;ID         X-Value      Y-Value     

[CONTROLS]

[RULES]

[ENERGY]
GLOBAL EFFICIENCY      100.0000
GLOBAL PRICE           936000.0000
DEMAND CHARGE          0.0000

[EMITTERS]
;ID        Flow coefficient

[QUALITY]

[SOURCES]
;Node      Type       Quality    Pattern   

[REACTIONS]
;Type           Pipe/Tank               Coefficient

 ORDER BULK 1
 ORDER TANK 1
 ORDER WALL 1
 GLOBAL BULK 0.0000    
 GLOBAL WALL 0.0000    
 LIMITING POTENTIAL 0.0000    
 ROUGHNESS CORRELATION 0.0000    

[MIXING]
;Tank ID             Model Fraction

[TIMES]
DURATION             24:00:00
HYDRAULIC TIMESTEP   01:00:00
QUALITY TIMESTEP     00:05:00
PATTERN TIMESTEP     01:00:00
PATTERN START        00:00:00
REPORT TIMESTEP      01:00:00
REPORT START         00:00:00
START CLOCKTIME      00:00:00 AM
RULE TIMESTEP        00:06:00
STATISTIC            NONE      

[REPORT]
SUMMARY    NO
PAGE       0

[OPTIONS]
UNITS                CMH                 
HEADLOSS             H-W                 
SPECIFIC GRAVITY     1
VISCOSITY            1
TRIALS               100
ACCURACY             0.01
CHECKFREQ            2
MAXCHECK             10
UNBALANCED           CONTINUE 10
DEMAND MULTIPLIER    0.75
EMITTER EXPONENT     0.5
QUALITY              NONE                
DIFFUSIVITY          1
TOLERANCE            0.01

[COORDINATES]
;Node      X-Coord    Y-Coord   
2                5021.200000000       1582.170000000
3                5025.200000000       2585.420000000
4                5874.220000000       2588.300000000
5                6873.110000000       2588.300000000
6                8103.510000000       2585.420000000
7                8103.510000000       3234.670000000
8                8106.660000000       4179.280000000
9                8106.660000000       5133.780000000
10               7318.640000000       5133.780000000
11               7319.940000000       5831.650000000
12               7319.940000000       6671.190000000
13               5636.760000000       6676.240000000
14               6530.630000000       5133.780000000
15               5676.020000000       5133.780000000
16               5021.200000000       5133.780000000
17               5021.200000000       4412.360000000
18               5021.200000000       3868.520000000
19               5021.200000000       3191.490000000
20               3587.870000000       2588.300000000
21               3587.870000000       1300.840000000
22               3587.870000000        901.290000000
23               1978.550000000       2588.300000000
24               1975.580000000       4084.350000000
25               1980.460000000       5137.630000000
26               3077.460000000       5137.630000000
27               3933.520000000       5133.780000000
28                846.040000000       2588.200000000
29               -552.410000000       2588.200000000
30               -552.380000000       4369.060000000
31               -549.360000000       5137.630000000
32                536.450000000       5137.630000000
1                5360.710000000       1354.050000000

[VERTICES]
;Link      X-Coord    Y-Coord   

[LABELS]

[BACKDROP]
DIMENSIONS    -985.92    612.54    8551.27    6964.99
UNITS    NONE
OFFSET    0.00    0.00

[END]
