; Filename: c:\Users\conal\OneDrive - Imperial College London\Imperial\Masters Project\Git_Sync\WDN_Optimisation_Proj\Code\PPO_Optimisation_2\PPO_Training\Modified_nets\hanoi_sprawling_3\Step_50.inp
; WNTR: 1.3.2
; Created: 2025-05-27 17:34:18
[TITLE]
Hanoi example by Fujiwara and Khang, Water Resources Research, 1990

[JUNCTIONS]
;ID                      Elevation       Demand Pattern                 
 2                                  0    1440.4370971                            ;
 3                                  0    1400.4370971                            ;
 4                                  0    680.43709706                            ;
 5                                  0    1275.4370971                            ;
 6                                  0    1555.4370971                            ;
 7                                  0    1900.4370971                            ;
 8                                  0    1100.4370971                            ;
 9                                  0    1075.4370971                            ;
 10                                 0    1075.4370971                            ;
 11                                 0    1050.4370971                            ;
 12                                 0    1110.4370971                            ;
 13                                 0    1490.4370971                            ;
 14                                 0    1165.4370971                            ;
 15                                 0    830.43709706                            ;
 16                                 0    860.43709706                            ;
 17                                 0    1415.4370971                            ;
 18                                 0    1895.4370971                            ;
 19                                 0    610.43709706                            ;
 20                                 0    1825.4370971                            ;
 21                                 0    1480.4370971                            ;
 22                                 0    1035.4370971                            ;
 23                                 0    1595.4370971                            ;
 24                                 0    1370.4370971                            ;
 25                                 0    720.43709706                            ;
 26                                 0    1450.4370971                            ;
 27                                 0    920.43709706                            ;
 28                                 0    840.43709706                            ;
 29                                 0    910.43709706                            ;
 30                                 0    910.43709706                            ;
 31                                 0    655.43709706                            ;
 32                                 0    1355.4370971                            ;
 33                                 0    513.49638076                            ;
 35                                 0    54.399592976                            ;
 37                                 0   0.62474839998                            ;

[RESERVOIRS]
;ID                                   Head                  Pattern
 1                                100                            ;

[TANKS]
;ID                              Elevation           Init Level            Min Level            Max Level             Diameter           Min Volume Volume Curve         Overflow            

[PIPES]
;ID                   Node1                Node2                              Length             Diameter            Roughness           Minor Loss               Status
 1                    1                    2                                100            2000             130               0                 Open   ;
 2                    2                    3                               1350            2000             130               0                 Open   ;
 3                    3                    4                                900            2000             130               0                 Open   ;
 4                    4                    5                               1150            2000             130               0                 Open   ;
 5                    5                    6                               1450            2000             130               0                 Open   ;
 6                    6                    7                                450            2000             130               0                 Open   ;
 7                    7                    8                                850            2000             130               0                 Open   ;
 8                    8                    9                                850            2000             130               0                 Open   ;
 9                    9                    10                               800            2000             130               0                 Open   ;
 10                   10                   11                               950            2000             130               0                 Open   ;
 11                   11                   12                              1200            2000             130               0                 Open   ;
 12                   12                   13                              3500            2000             130               0                 Open   ;
 13                   10                   14                               800            2000             130               0                 Open   ;
 14                   14                   15                               500            2000             130               0                 Open   ;
 15                   15                   16                               550            2000             130               0                 Open   ;
 16                   17                   16                              2730            2000             130               0                 Open   ;
 17                   18                   17                              1750            2000             130               0                 Open   ;
 18                   19                   18                               800            2000             130               0                 Open   ;
 19                   3                    19                               400            2000             130               0                 Open   ;
 20                   3                    20                              2200            2000             130               0                 Open   ;
 21                   20                   21                              1500            2000             130               0                 Open   ;
 22                   21                   22                               500            2000             130               0                 Open   ;
 23                   20                   23                              2650            2000             130               0                 Open   ;
 24                   23                   24                              1230            2000             130               0                 Open   ;
 25                   24                   25                              1300            2000             130               0                 Open   ;
 26                   26                   25                               850            2000             130               0                 Open   ;
 27                   27                   26                               300            2000             130               0                 Open   ;
 28                   16                   27                               750            2000             130               0                 Open   ;
 29                   23                   28                              1500            2000             130               0                 Open   ;
 30                   28                   29                              2000            2000             130               0                 Open   ;
 31                   29                   30                              1600            2000             130               0                 Open   ;
 32                   30                   31                               150            2000             130               0                 Open   ;
 33                   32                   31                               860            2000             130               0                 Open   ;
 34                   25                   32                               950            2000             130               0                 Open   ;
 pipe_33_13           33                   13                      2172.4527669            2000              20               0                 Open   ;
 pipe_35_33           35                   33                      2351.1681105            2000              20               0                 Open   ;
 pipe_37_31           37                   31                           1538.61            2000              20               0                 Open   ;
 pipe_37_35           37                   35                      1662.4991226            2000              20               0                 Open   ;

[PUMPS]
;ID                   Node1                Node2                Properties          

[VALVES]
;ID                   Node1                Node2                            Diameter Type              Setting           Minor Loss

[TAGS]
;type      name       tag       

[DEMANDS]
;ID        Demand     Pattern   

[STATUS]
;ID        Setting   

[PATTERNS]
;ID        Multipliers

[CURVES]
;ID         X-Value      Y-Value     

[CONTROLS]

[RULES]

[ENERGY]
GLOBAL EFFICIENCY      75.0000
GLOBAL PRICE           936000.0000
DEMAND CHARGE          0.0000

[EMITTERS]
;ID        Flow coefficient

[QUALITY]

[SOURCES]
;Node      Type       Quality    Pattern   

[REACTIONS]
;Type           Pipe/Tank               Coefficient

 ORDER BULK 1
 ORDER TANK 1
 ORDER WALL 1
 GLOBAL BULK 0.0000    
 GLOBAL WALL 0.0000    
 LIMITING POTENTIAL 0.0000    
 ROUGHNESS CORRELATION 0.0000    

[MIXING]
;Tank ID             Model Fraction

[TIMES]
DURATION             24:00:00
HYDRAULIC TIMESTEP   01:00:00
QUALITY TIMESTEP     00:05:00
PATTERN TIMESTEP     01:00:00
PATTERN START        00:00:00
REPORT TIMESTEP      01:00:00
REPORT START         00:00:00
START CLOCKTIME      00:00:00 AM
RULE TIMESTEP        00:06:00
STATISTIC            NONE      

[REPORT]
SUMMARY    NO
PAGE       0

[OPTIONS]
UNITS                CMH                 
HEADLOSS             H-W                 
SPECIFIC GRAVITY     1
VISCOSITY            1
TRIALS               40
ACCURACY             0.01
CHECKFREQ            2
MAXCHECK             10
UNBALANCED           CONTINUE 10
DEMAND MULTIPLIER    0.75
EMITTER EXPONENT     0.5
QUALITY              NONE                
DIFFUSIVITY          1
TOLERANCE            0.01

[COORDINATES]
;Node      X-Coord    Y-Coord   
2                5021.200000000       1582.170000000
3                5025.200000000       2585.420000000
4                5874.220000000       2588.300000000
5                6873.110000000       2588.300000000
6                8103.510000000       2585.420000000
7                8103.510000000       3234.670000000
8                8106.660000000       4179.280000000
9                8106.660000000       5133.780000000
10               7318.640000000       5133.780000000
11               7319.940000000       5831.650000000
12               7319.940000000       6671.190000000
13               5636.760000000       6676.240000000
14               6530.630000000       5133.780000000
15               5676.020000000       5133.780000000
16               5021.200000000       5133.780000000
17               5021.200000000       4412.360000000
18               5021.200000000       3868.520000000
19               5021.200000000       3191.490000000
20               3587.870000000       2588.300000000
21               3587.870000000       1300.840000000
22               3587.870000000        901.290000000
23               1978.550000000       2588.300000000
24               1975.580000000       4084.350000000
25               1980.460000000       5137.630000000
26               3077.460000000       5137.630000000
27               3933.520000000       5133.780000000
28                846.040000000       2588.200000000
29               -552.410000000       2588.200000000
30               -552.380000000       4369.060000000
31               -549.360000000       5137.630000000
32                536.450000000       5137.630000000
33               3464.307233088       6676.240000000
35               1113.139122557       6676.240000000
37               -549.360000000       6676.240000000
1                5360.710000000       1354.050000000

[VERTICES]
;Link      X-Coord    Y-Coord   

[LABELS]

[BACKDROP]
DIMENSIONS    -985.92    612.54    8551.27    6964.99
UNITS    NONE
OFFSET    0.00    0.00

[END]
