[TITLE]

[JUNCTIONS]
;ID                      Elevation       Demand Pattern                 
 J_0_0                   138.16743144    47550.969424                            ;
 J_0_1                   150.33049408    158503.23141                            ;
 J_0_2                    162.9513185    31700.646283                            ;
 J_0_3                   179.26370992    79251.615707                            ;
 J_0_4                   200.08734282    31700.646283                            ;
 J_0_5                   222.81921023    126802.58513                            ;
 J_0_8                   234.56834024    110952.26199                            ;
 J_0_9                   200.77484571    63401.292566                            ;
 J_1_0                   143.43774257    31700.646283                            ;
 J_1_1                   164.19174665    126802.58513                            ;
 J_1_2                   187.68399385    15850.323141                            ;
 J_1_3                   215.72845246    110952.26199                            ;
 J_1_4                   247.00894024    110952.26199                            ;
 J_1_5                    276.4080221    158503.23141                            ;
 J_1_8                   272.98477889    79251.615707                            ;
 J_1_9                   227.18357275    63401.292566                            ;
 J_2_0                   136.68613935    158503.23141                            ;
 J_2_1                   165.15949633    31700.646283                            ;
 J_2_2                   198.52901663    95101.938849                            ;
 J_2_3                   236.72539568    15850.323141                            ;
 J_2_4                   275.99150518    15850.323141                            ;
 J_2_5                   308.74925391    15850.323141                            ;
 J_2_6                   325.38483111    142652.90827                            ;
 J_2_7                   317.82755848    15850.323141                            ;
 J_2_8                   283.68663004    110952.26199                            ;
 J_3_0                   120.25961537    110952.26199                            ;
 J_3_1                   153.22334353    15850.323141                            ;
 J_3_2                   192.36519277    142652.90827                            ;
 J_3_3                   235.83211832    63401.292566                            ;
 J_3_4                   277.93375617    126802.58513                            ;
 J_3_5                   309.59568073    126802.58513                            ;
 J_3_6                   320.95625014    142652.90827                            ;
 J_3_7                   305.59581838    63401.292566                            ;
 J_3_8                   264.31779516    95101.938849                            ;
 J_3_9                   205.77077529    63401.292566                            ;
 J_4_0                   98.043361185    63401.292566                            ;
 J_4_1                   131.00112066    126802.58513                            ;
 J_4_2                   170.16081556    79251.615707                            ;
 J_4_3                   212.47505615    15850.323141                            ;
 J_4_4                   251.43129367    110952.26199                            ;
 J_4_5                   277.97025609    142652.90827                            ;
 J_4_6                   283.38784131    31700.646283                            ;
 J_4_7                    263.4344998    47550.969424                            ;
 J_4_8                   221.24896346    79251.615707                            ;
 J_4_9                   166.66549187    31700.646283                            ;
 J_5_0                    74.12985325    95101.938849                            ;
 J_5_1                   102.99968865    142652.90827                            ;
 J_5_2                    137.0256196    110952.26199                            ;
 J_5_3                    172.7638313    142652.90827                            ;
 J_5_4                   204.07971075    63401.292566                            ;
 J_5_5                   223.29579311    79251.615707                            ;
 J_5_6                   223.84549708    79251.615707                            ;
 J_5_7                   203.56441124    158503.23141                            ;
 J_5_8                   166.55286291    126802.58513                            ;
 J_5_9                   121.81102241    142652.90827                            ;
 J_6_0                   51.869694403    110952.26199                            ;
 J_6_1                   74.273861397    158503.23141                            ;
 J_6_2                    100.2954813    15850.323141                            ;
 J_6_4                   148.81395529    63401.292566                            ;
 J_6_5                   160.77237723    110952.26199                            ;
 J_6_6                   158.44669679    110952.26199                            ;
 J_6_7                   141.21004648    47550.969424                            ;
 J_6_8                   112.92585159    95101.938849                            ;
 J_6_9                   80.509038849    142652.90827                            ;
 J_7_0                   33.389705272    95101.938849                            ;
 J_7_1                    48.94812078    31700.646283                            ;
 J_7_2                   66.673532813    126802.58513                            ;
 J_7_3                   84.114624555    142652.90827                            ;
 J_7_4                   97.801764598    31700.646283                            ;
 J_7_5                   104.16655041    47550.969424                            ;
 J_7_6                    100.9108484    142652.90827                            ;
 J_7_7                   88.243475479    110952.26199                            ;
 J_7_8                   69.140461797    95101.938849                            ;
 J_7_9                   48.185671666    126802.58513                            ;
 J_8_0                   19.519412655    15850.323141                            ;
 J_8_1                   29.280594139    126802.58513                            ;
 J_8_2                     40.1609264    15850.323141                            ;
 J_8_3                   50.491052933    79251.615707                            ;
 J_8_4                   58.106020321    158503.23141                            ;
 J_8_5                   60.990737652    158503.23141                            ;
 J_8_6                   58.083346071    158503.23141                            ;
 J_8_7                   49.859086854    110952.26199                            ;
 J_8_8                   38.286806483    47550.969424                            ;
 J_8_9                   26.048822742    47550.969424                            ;
 J_9_0                   10.040410398    142652.90827                            ;
 J_9_1                   15.622407072    63401.292566                            ;
 J_9_2                   21.707641922    15850.323141                            ;
 J_9_3                   27.286466597    63401.292566                            ;
 J_9_4                    31.14317427    142652.90827                            ;
 J_9_5                   32.251517031    142652.90827                            ;
 J_9_6                    30.19601282    63401.292566                            ;
 J_9_7                   25.404571256    110952.26199                            ;
 J_9_8                   19.026863521    142652.90827                            ;
 J_9_9                   12.478250373    95101.938849                            ;

[RESERVOIRS]
;ID                                   Head                  Pattern
 R1                      111.35572322                            ;

[TANKS]
;ID                              Elevation           Init Level            Min Level            Max Level             Diameter           Min Volume Volume Curve         Overflow            

[PIPES]
;ID                   Node1                Node2                              Length             Diameter            Roughness           Minor Loss               Status
 P_2                  J_0_0                J_0_9                    328.0839895              12              92               0                 Open   ;
 P_5                  J_0_1                J_0_2                    328.0839895              40             125               0                 Open   ;
 P_9                  J_0_2                J_9_2                    328.0839895              16             137               0                 Open   ;
 P_10                 J_0_3                J_1_3                    328.0839895              24              62               0                 Open   ;
 P_11                 J_0_3                J_0_4                    328.0839895              16              62               0                 Open   ;
 P_12                 J_0_3                J_9_3                    328.0839895              24              78               0                 Open   ;
 P_13                 J_0_4                J_1_4                    328.0839895              12              80               0                 Open   ;
 P_15                 J_0_4                J_9_4                    328.0839895              24             150               0                 Open   ;
 P_16                 J_0_5                J_1_5                    328.0839895              30             146               0                 Open   ;
 P_25                 J_0_8                J_1_8                    328.0839895              24             129               0                 Open   ;
 P_26                 J_0_8                J_0_9                    328.0839895              16             140               0                 Open   ;
 P_27                 J_0_8                J_9_8                    328.0839895              40             126               0                 Open   ;
 P_30                 J_1_0                J_2_0                    328.0839895              24              88               0                 Open   ;
 P_31                 J_1_0                J_1_1                    328.0839895              30             143               0                 Open   ;
 P_32                 J_1_0                J_1_9                    328.0839895              12             110               0                 Open   ;
 P_34                 J_1_1                J_1_2                    328.0839895              40             133               0                 Open   ;
 P_35                 J_1_2                J_2_2                    328.0839895              20             144               0                 Open   ;
 P_36                 J_1_2                J_1_3                    328.0839895              40             114               0                 Open   ;
 P_37                 J_1_3                J_2_3                    328.0839895              12              98               0                 Open   ;
 P_38                 J_1_3                J_1_4                    328.0839895              16              87               0                 Open   ;
 P_39                 J_1_4                J_2_4                    328.0839895              12              99               0                 Open   ;
 P_41                 J_1_5                J_2_5                    328.0839895              12              69               0                 Open   ;
 P_48                 J_1_8                J_1_9                    328.0839895              20              98               0                 Open   ;
 P_50                 J_2_0                J_3_0                    328.0839895              40              80               0                 Open   ;
 P_54                 J_2_1                J_2_2                    328.0839895              24             132               0                 Open   ;
 P_55                 J_2_2                J_3_2                    328.0839895              20              76               0                 Open   ;
 P_56                 J_2_2                J_2_3                    328.0839895              12             131               0                 Open   ;
 P_57                 J_2_3                J_3_3                    328.0839895              12             135               0                 Open   ;
 P_59                 J_2_4                J_3_4                    328.0839895              16             132               0                 Open   ;
 P_60                 J_2_4                J_2_5                    328.0839895              24              81               0                 Open   ;
 P_61                 J_2_5                J_3_5                    328.0839895              40             139               0                 Open   ;
 P_62                 J_2_5                J_2_6                    328.0839895              30              64               0                 Open   ;
 P_64                 J_2_6                J_2_7                    328.0839895              24              85               0                 Open   ;
 P_66                 J_2_7                J_2_8                    328.0839895              20              72               0                 Open   ;
 P_67                 J_2_8                J_3_8                    328.0839895              16             133               0                 Open   ;
 P_70                 J_3_0                J_4_0                    328.0839895              40             115               0                 Open   ;
 P_72                 J_3_0                J_3_9                    328.0839895              30              84               0                 Open   ;
 P_73                 J_3_1                J_4_1                    328.0839895              24              73               0                 Open   ;
 P_76                 J_3_2                J_3_3                    328.0839895              40             109               0                 Open   ;
 P_77                 J_3_3                J_4_3                    328.0839895              20             124               0                 Open   ;
 P_78                 J_3_3                J_3_4                    328.0839895              24              62               0                 Open   ;
 P_80                 J_3_4                J_3_5                    328.0839895              20             138               0                 Open   ;
 P_81                 J_3_5                J_4_5                    328.0839895              24              96               0                 Open   ;
 P_83                 J_3_6                J_4_6                    328.0839895              12              80               0                 Open   ;
 P_85                 J_3_7                J_4_7                    328.0839895              16             101               0                 Open   ;
 P_86                 J_3_7                J_3_8                    328.0839895              30              77               0                 Open   ;
 P_87                 J_3_8                J_4_8                    328.0839895              20             114               0                 Open   ;
 P_89                 J_3_9                J_4_9                    328.0839895              16              94               0                 Open   ;
 P_92                 J_4_0                J_4_9                    328.0839895              40              72               0                 Open   ;
 P_94                 J_4_1                J_4_2                    328.0839895              24             130               0                 Open   ;
 P_95                 J_4_2                J_5_2                    328.0839895              20             147               0                 Open   ;
 P_96                 J_4_2                J_4_3                    328.0839895              30             122               0                 Open   ;
 P_97                 J_4_3                J_5_3                    328.0839895              30              90               0                 Open   ;
 P_99                 J_4_4                J_5_4                    328.0839895              12              65               0                 Open   ;
 P_100                J_4_4                J_4_5                    328.0839895              12              77               0                 Open   ;
 P_102                J_4_5                J_4_6                    328.0839895              16              81               0                 Open   ;
 P_103                J_4_6                J_5_6                    328.0839895              30              87               0                 Open   ;
 P_104                J_4_6                J_4_7                    328.0839895              20             102               0                 Open   ;
 P_107                J_4_8                J_5_8                    328.0839895              30             124               0                 Open   ;
 P_108                J_4_8                J_4_9                    328.0839895              20             107               0                 Open   ;
 P_110                J_5_0                J_6_0                    328.0839895              20             103               0                 Open   ;
 P_111                J_5_0                J_5_1                    328.0839895              12              97               0                 Open   ;
 P_112                J_5_0                J_5_9                    328.0839895              16             137               0                 Open   ;
 P_113                J_5_1                J_6_1                    328.0839895              40             122               0                 Open   ;
 P_114                J_5_1                J_5_2                    328.0839895              16             134               0                 Open   ;
 P_118                J_5_3                J_5_4                    328.0839895              30              73               0                 Open   ;
 P_119                J_5_4                J_6_4                    328.0839895              20              65               0                 Open   ;
 P_120                J_5_4                J_5_5                    328.0839895              24              69               0                 Open   ;
 P_122                J_5_5                J_5_6                    328.0839895              24              78               0                 Open   ;
 P_125                J_5_7                J_6_7                    328.0839895              16             103               0                 Open   ;
 P_126                J_5_7                J_5_8                    328.0839895              12             138               0                 Open   ;
 P_128                J_5_8                J_5_9                    328.0839895              30             108               0                 Open   ;
 P_130                J_6_0                J_7_0                    328.0839895              12             133               0                 Open   ;
 P_133                J_6_1                J_7_1                    328.0839895              30              88               0                 Open   ;
 P_134                J_6_1                J_6_2                    328.0839895              30              70               0                 Open   ;
 P_139                J_6_4                J_7_4                    328.0839895              20             106               0                 Open   ;
 P_142                J_6_5                J_6_6                    328.0839895              20             132               0                 Open   ;
 P_144                J_6_6                J_6_7                    328.0839895              30              74               0                 Open   ;
 P_146                J_6_7                J_6_8                    328.0839895              24              95               0                 Open   ;
 P_148                J_6_8                J_6_9                    328.0839895              12              65               0                 Open   ;
 P_150                J_7_0                J_8_0                    328.0839895              20              61               0                 Open   ;
 P_151                J_7_0                J_7_1                    328.0839895              30             145               0                 Open   ;
 P_152                J_7_0                J_7_9                    328.0839895              12              71               0                 Open   ;
 P_154                J_7_1                J_7_2                    328.0839895              24              74               0                 Open   ;
 P_157                J_7_3                J_8_3                    328.0839895              12              84               0                 Open   ;
 P_158                J_7_3                J_7_4                    328.0839895              16             135               0                 Open   ;
 P_160                J_7_4                J_7_5                    328.0839895              24              80               0                 Open   ;
 P_161                J_7_5                J_8_5                    328.0839895              12             117               0                 Open   ;
 P_162                J_7_5                J_7_6                    328.0839895              16             147               0                 Open   ;
 P_163                J_7_6                J_8_6                    328.0839895              16              80               0                 Open   ;
 P_164                J_7_6                J_7_7                    328.0839895              40              73               0                 Open   ;
 P_165                J_7_7                J_8_7                    328.0839895              24             108               0                 Open   ;
 P_166                J_7_7                J_7_8                    328.0839895              30              97               0                 Open   ;
 P_167                J_7_8                J_8_8                    328.0839895              30              92               0                 Open   ;
 P_169                J_7_9                J_8_9                    328.0839895              40             121               0                 Open   ;
 P_170                J_8_0                J_9_0                    328.0839895              20              72               0                 Open   ;
 P_171                J_8_0                J_8_1                    328.0839895              16             143               0                 Open   ;
 P_173                J_8_1                J_9_1                    328.0839895              20              65               0                 Open   ;
 P_174                J_8_1                J_8_2                    328.0839895              12              61               0                 Open   ;
 P_175                J_8_2                J_9_2                    328.0839895              20             136               0                 Open   ;
 P_176                J_8_2                J_8_3                    328.0839895              20             117               0                 Open   ;
 P_177                J_8_3                J_9_3                    328.0839895              24             100               0                 Open   ;
 P_178                J_8_3                J_8_4                    328.0839895              24              68               0                 Open   ;
 P_180                J_8_4                J_8_5                    328.0839895              12             100               0                 Open   ;
 P_181                J_8_5                J_9_5                    328.0839895              30             118               0                 Open   ;
 P_182                J_8_5                J_8_6                    328.0839895              12              92               0                 Open   ;
 P_183                J_8_6                J_9_6                    328.0839895              16             139               0                 Open   ;
 P_184                J_8_6                J_8_7                    328.0839895              30             148               0                 Open   ;
 P_185                J_8_7                J_9_7                    328.0839895              24             144               0                 Open   ;
 P_187                J_8_8                J_9_8                    328.0839895              20              93               0                 Open   ;
 P_190                J_9_0                J_9_1                    328.0839895              16             129               0                 Open   ;
 P_191                J_9_0                J_9_9                    328.0839895              16              99               0                 Open   ;
 P_192                J_9_1                J_9_2                    328.0839895              16              91               0                 Open   ;
 P_193                J_9_2                J_9_3                    328.0839895              20              70               0                 Open   ;
 P_196                J_9_5                J_9_6                    328.0839895              20              71               0                 Open   ;
 P_199                J_9_8                J_9_9                    328.0839895              24              71               0                 Open   ;
 PR1                  R1                   J_0_0                    328.0839895              40             133               0                 Open   ;

[PUMPS]
;ID                   Node1                Node2                Properties          
 Pump_1               R1                   J_0_0                POWER    67.05110444219038      ;

[VALVES]
;ID                   Node1                Node2                            Diameter Type              Setting           Minor Loss

[TAGS]
;type      name       tag       

[DEMANDS]
;ID        Demand     Pattern   

[STATUS]
;ID        Setting   

[PATTERNS]
;ID        Multipliers

[CURVES]
;ID         X-Value      Y-Value     

[CONTROLS]

[RULES]

[ENERGY]
GLOBAL PRICE           0.0000

[EMITTERS]
;ID        Flow coefficient

[QUALITY]

[SOURCES]
;Node      Type       Quality    Pattern   

[REACTIONS]
;Type           Pipe/Tank               Coefficient

 ORDER BULK 1
 ORDER TANK 1
 ORDER WALL 1
 GLOBAL BULK 0.0000    
 GLOBAL WALL 0.0000    

[MIXING]
;Tank ID             Model Fraction

[TIMES]
DURATION             00:00:00
HYDRAULIC TIMESTEP   01:00:00
QUALITY TIMESTEP     00:06:00
PATTERN TIMESTEP     01:00:00
PATTERN START        00:00:00
REPORT TIMESTEP      01:00:00
REPORT START         00:00:00
START CLOCKTIME      00:00:00 AM
RULE TIMESTEP        00:06:00
STATISTIC            NONE      

[REPORT]

[OPTIONS]
UNITS                GPM                 
HEADLOSS             H-W                 
SPECIFIC GRAVITY     1
VISCOSITY            1
TRIALS               200
ACCURACY             0.001
CHECKFREQ            2
MAXCHECK             10
UNBALANCED           STOP                
PATTERN              1                   
DEMAND MULTIPLIER    1
EMITTER EXPONENT     0.5
QUALITY              NONE                
DIFFUSIVITY          1
TOLERANCE            0.01

[COORDINATES]
;Node      X-Coord    Y-Coord   
J_0_0               0.000000000          0.000000000
J_0_1               0.000000000        100.000000000
J_0_2               0.000000000        200.000000000
J_0_3               0.000000000        300.000000000
J_0_4               0.000000000        400.000000000
J_0_5               0.000000000        500.000000000
J_0_8               0.000000000        800.000000000
J_0_9               0.000000000        900.000000000
J_1_0             100.000000000          0.000000000
J_1_1             100.000000000        100.000000000
J_1_2             100.000000000        200.000000000
J_1_3             100.000000000        300.000000000
J_1_4             100.000000000        400.000000000
J_1_5             100.000000000        500.000000000
J_1_8             100.000000000        800.000000000
J_1_9             100.000000000        900.000000000
J_2_0             200.000000000          0.000000000
J_2_1             200.000000000        100.000000000
J_2_2             200.000000000        200.000000000
J_2_3             200.000000000        300.000000000
J_2_4             200.000000000        400.000000000
J_2_5             200.000000000        500.000000000
J_2_6             200.000000000        600.000000000
J_2_7             200.000000000        700.000000000
J_2_8             200.000000000        800.000000000
J_3_0             300.000000000          0.000000000
J_3_1             300.000000000        100.000000000
J_3_2             300.000000000        200.000000000
J_3_3             300.000000000        300.000000000
J_3_4             300.000000000        400.000000000
J_3_5             300.000000000        500.000000000
J_3_6             300.000000000        600.000000000
J_3_7             300.000000000        700.000000000
J_3_8             300.000000000        800.000000000
J_3_9             300.000000000        900.000000000
J_4_0             400.000000000          0.000000000