[TITLE]

[JUNCTIONS]
;ID                      Elevation       Demand Pattern                 
 J_6_4                    189.6300974               0                            ;
 J_9_4                   111.99948506               0                            ;
 J_2_5                   265.33703765               0                            ;
 J_3_4                   235.12455215               0                            ;
 J_7_4                    162.8618011               0                            ;
