; Filename: c:\Users\conal\OneDrive - Imperial College London\Imperial\Masters Project\Git_Sync\WDN_Optimisation_Proj\Code\PPO_Optimisation_2\PPO_Training\Modified_nets\anytown-3.inp
; WNTR: 1.3.2
; Created: 2025-05-26 20:02:44
[TITLE]
ANYTOWN example

[JUNCTIONS]
;ID                      Elevation       Demand Pattern                 
 1                              6.096    172.06309329 1                          ;
 2                              15.24    103.92568118 1                          ;
 3                              15.24    103.92568118 1                          ;
 4                              15.24    194.77556399 1                          ;
 5                             24.384    194.77556399 1                          ;
 6                             24.384    194.77556399 1                          ;
 7                             24.384    194.77556399 1                          ;
 8                             24.384    149.35062259 1                          ;
 9                             36.576    149.35062259 1                          ;
 10                            36.576    149.35062259 1                          ;
 11                            36.576    149.35062259 1                          ;
 12                             15.24    172.06309329 1                          ;
 13                             15.24    172.06309329 1                          ;
 14                             15.24    172.06309329 1                          ;
 15                             15.24    172.06309329 1                          ;
 16                            36.576    149.35062259 1                          ;
 17                            36.576    285.62544681 1                          ;
 18                             15.24    172.06309329 1                          ;
 19                             15.24    285.62544681 1                          ;
 20                             6.096    58.500739771 1                          ;
 21                             15.24    58.500739771 1                          ;
 22                            36.576    58.500739771 1                          ;

[RESERVOIRS]
;ID                                   Head                  Pattern
 40                             3.048                            ;

[TANKS]
;ID                              Elevation           Init Level            Min Level            Max Level             Diameter           Min Volume Volume Curve         Overflow            
 41                            65.532           3.048           3.048          10.668         9.95172               0                                             ;
 42                            65.532           3.048           3.048          10.668         9.95172               0                                             ;

[PIPES]
;ID                   Node1                Node2                              Length             Diameter            Roughness           Minor Loss               Status
 1                    1                    2                             3657.6           304.8             120               0                 Open   ;
 2                    1                    12                            3657.6           304.8              70               0                 Open   ;
 3                    1                    13                            3657.6           406.4              70               0                 Open   ;
 4                    1                    20                             30.48             762             130               0                 Open   ;
 5                    2                    3                             1828.8           304.8             120               0                 Open   ;
 6                    2                    4                             2743.2           304.8             120               0                 Open   ;
 7                    2                    13                            2743.2           304.8              70               0                 Open   ;
 8                    2                    14                            1828.8           304.8             120               0                 Open   ;
 9                    3                    4                             1828.8           304.8             120               0                 Open   ;
 11                   4                    8                             3657.6           304.8             120               0                 Open   ;
 12                   4                    15                            1828.8           304.8             120               0                 Open   ;
 17                   8                    9                             3657.6           304.8             120               0                 Open   ;
 18                   8                    15                            1828.8           304.8             120               0                 Open   ;
 19                   8                    16                            1828.8           304.8             120               0                 Open   ;
 20                   8                    17                            1828.8           304.8             120               0                 Open   ;
 21                   9                    10                            1828.8           304.8             120               0                 Open   ;
 22                   10                   11                            1828.8           304.8             120               0                 Open   ;
 23                   10                   17                            1828.8           304.8             120               0                 Open   ;
 24                   11                   12                            1828.8           304.8             120               0                 Open   ;
 26                   12                   17                            1828.8           304.8             120               0                 Open   ;
 27                   12                   18                            1828.8           304.8              70               0                 Open   ;
 28                   13                   14                            1828.8           304.8              70               0                 Open   ;
 29                   13                   18                            1828.8           304.8              70               0                 Open   ;
 30                   13                   19                            1828.8           304.8              70               0                 Open   ;
 31                   14                   15                            1828.8           304.8              70               0                 Open   ;
 32                   14                   19                            1828.8           304.8              70               0                 Open   ;
 33                   14                   21                             30.48           304.8             120               0                 Open   ;
 34                   15                   16                            1828.8           304.8              70               0                 Open   ;
 35                   15                   19                            1828.8           304.8              70               0                 Open   ;
 36                   16                   17                            1828.8           304.8             120               0                 Open   ;
 37                   16                   18                            1828.8           304.8              70               0                 Open   ;
 38                   16                   19                            1828.8           304.8              70               0                 Open   ;
 39                   17                   18                            1828.8           304.8             120               0                 Open   ;
 40                   17                   22                             30.48           304.8             120               0                 Open   ;
 41                   18                   19                            1828.8           304.8              70               0                 Open   ;
 142                  21                   41                            0.3048           304.8             120               0                 Open   ;
 143                  22                   42                            0.3048           304.8             120               0                 Open   ;
 110                  4                    5                             1828.8           304.8             130               0                 Open   ;
 113                  5                    6                             1828.8           304.8             130               0                 Open   ;
 114                  6                    7                             1828.8           304.8             130               0                 Open   ;
 115                  6                    8                             1828.8           304.8             130               0                 Open   ;
 116                  7                    8                             1828.8           304.8             130               0                 Open   ;
 125                  11                   17                            2743.2           304.8             130               0                 Open   ;

[PUMPS]
;ID                   Node1                Node2                Properties          
 78                   40                   20                   HEAD     2                      ;
 79                   40                   20                   HEAD     2                      ;
 80                   40                   20                   HEAD     2                      ;

[VALVES]
;ID                   Node1                Node2                            Diameter Type              Setting           Minor Loss

[TAGS]
;type      name       tag       

[DEMANDS]
;ID        Demand     Pattern   

[STATUS]
;ID        Setting   

[PATTERNS]
;ID        Multipliers

1 1.000000 1.000000 1.000000 0.900000 0.900000 0.900000
1 0.700000 0.700000 0.700000 0.600000 0.600000 0.600000
1 1.200000 1.200000 1.200000 1.300000 1.300000 1.300000
1 1.200000 1.200000 1.200000 1.100000 1.100000 1.100000

2 0.000000 0.000000 0.000000 0.000000 0.000000 0.000000
2 0.000000 0.000000 0.000000 0.000000 0.000000 0.000000
2 0.000000 0.000000 0.000000 0.000000 0.000000 0.000000
2 0.000000 0.000000 0.000000 0.000000 0.000000 0.000000

3 0.000000 0.000000 0.000000 0.000000 0.000000 0.000000
3 0.000000 0.000000 0.000000 0.000000 0.000000 0.000000
3 0.000000 0.000000 0.000000 0.000000 0.000000 0.000000
3 0.000000 0.000000 0.000000 0.000000 0.000000 0.000000

4 0.000000 0.000000 0.000000 0.000000 0.000000 0.000000
4 0.000000 0.000000 0.000000 0.000000 0.000000 0.000000
4 0.000000 0.000000 0.000000 0.000000 0.000000 0.000000
4 0.000000 0.000000 0.000000 0.000000 0.000000 0.000000

[CURVES]
;ID         X-Value      Y-Value     
;PUMP: 2
 2              0.000000    91.440000   ;
 2            454.249414    89.001600   ;
 2            908.498828    82.296000   ;
 2           1362.748242    70.104000   ;
 2           1816.997656    55.168800   ;

;EFFICIENCY: E1
 E1             0.000000     0.000000   ;
 E1           454.249414    50.000000   ;
 E1           908.498828    65.000000   ;
 E1          1362.748242    55.000000   ;
 E1          1816.997656    40.000000   ;


[CONTROLS]

[RULES]

[ENERGY]
GLOBAL EFFICIENCY      75.0000
GLOBAL PRICE           936000.0000
DEMAND CHARGE          0.0000
PUMP 78         EFFIC   E1
PUMP 79         EFFIC   E1
PUMP 80         EFFIC   E1

[EMITTERS]
;ID        Flow coefficient

[QUALITY]

[SOURCES]
;Node      Type       Quality    Pattern   

[REACTIONS]
;Type           Pipe/Tank               Coefficient

 ORDER BULK 1
 ORDER TANK 1
 ORDER WALL 1
 GLOBAL BULK 0.0000    
 GLOBAL WALL 0.0000    
 LIMITING POTENTIAL 0.0000    
 ROUGHNESS CORRELATION 0.0000    

[MIXING]
;Tank ID             Model Fraction

[TIMES]
DURATION             24:00:00
HYDRAULIC TIMESTEP   01:00:00
QUALITY TIMESTEP     00:01:00
PATTERN TIMESTEP     01:00:00
PATTERN START        00:00:00
REPORT TIMESTEP      01:00:00
REPORT START         00:00:00
START CLOCKTIME      00:00:00 AM
RULE TIMESTEP        00:06:00
STATISTIC            NONE      

[REPORT]
STATUS     FULL
SUMMARY    NO
PAGE       0

[OPTIONS]
UNITS                CMH                 
HEADLOSS             H-W                 
SPECIFIC GRAVITY     1
VISCOSITY            1
TRIALS               40
ACCURACY             0.01
CHECKFREQ            2
MAXCHECK             10
UNBALANCED           CONTINUE 10
PATTERN              1                   
DEMAND MULTIPLIER    1.8
EMITTER EXPONENT     0.5
QUALITY              NONE                
DIFFUSIVITY          1
TOLERANCE            0.01

[COORDINATES]
;Node      X-Coord    Y-Coord   
1                7682.330000000       3371.150000000
2                7633.710000000       5737.440000000
3                7520.260000000       7293.350000000
4                6175.040000000       7568.880000000
5                5591.570000000       8460.290000000
6                4100.490000000       8071.310000000
7                3192.870000000       7763.370000000
8                3321.190000000       6696.550000000
9                1305.620000000       4850.970000000
10               2317.450000000       3588.200000000
11               3701.630000000       2892.060000000
12               4846.030000000       3354.940000000
13               6450.570000000       4424.640000000
14               6466.770000000       5769.850000000
15               5094.450000000       6482.090000000
16               4017.860000000       5615.960000000
17               3005.490000000       4292.430000000
18               4846.030000000       4440.840000000
19               5332.250000000       5332.250000000
20               8306.860000000       3369.330000000
21               6094.000000000       6499.190000000
22               2422.680000000       4519.090000000
40               8700.600000000       3371.150000000
41               6094.000000000       6600.190000000
42               2422.680000000       4700.090000000

[VERTICES]
;Link      X-Coord    Y-Coord   

[LABELS]

[BACKDROP]
DIMENSIONS    935.87    2613.65    9070.35    8738.70
UNITS    NONE
OFFSET    0.00    0.00

[END]
